THERMO
       300      1000      5000
N2                000000N   2C   0H   0O   0G       300      5000    1000      1
 2.92664000E+00 1.48797680E-03-5.68476000E-07 1.00970380E-10-6.75335100E-15    2
-9.22797700E+02 5.98052800E+00 3.29867700E+00 1.40824040E-03-3.96322200E-06    3
 5.64151500E-09-2.44485400E-12-1.02089990E+03 3.95037200E+00                   4
SXCH2             000000N   0C   1H   2O   0G       300      5000    1000      1
 2.29203842E+00 4.65588637E-03-2.01191947E-06 4.17906000E-10-3.39716365E-14    2
 5.09259997E+04 8.62650169E+00 4.19860411E+00-2.36661419E-03 8.23296220E-06    3
-6.68815981E-09 1.94314737E-12 5.04968163E+04-7.69118967E-01                   4
TXCH2             000000N   0C   1H   2O   0G       300      5000    1000      1
 2.87410113E+00 3.65639292E-03-1.40894597E-06 2.60179549E-10-1.87727567E-14    2
 4.62636040E+04 6.17119324E+00 3.76267867E+00 9.68872143E-04 2.79489841E-06    3
-3.85091153E-09 1.68741719E-12 4.60040401E+04 1.56253185E+00                   4
O                 000000N   0C   0H   0O   1G       300      5000    1000      1
 2.56942078E+00-8.59741137E-05 4.19484589E-08-1.00177799E-11 1.22833691E-15    2
 2.92175791E+04 4.78433864E+00 3.16826710E+00-3.27931884E-03 6.64306396E-06    3
-6.12806624E-09 2.11265971E-12 2.91222592E+04 2.05193346E+00                   4
H2                000000N   0C   0H   2O   0G       300      5000    1000      1
 3.33727920E+00-4.94024731E-05 4.99456778E-07-1.79566394E-10 2.00255376E-14    2
-9.50158922E+02-3.20502331E+00 2.34433112E+00 7.98052075E-03-1.94781510E-05    3
 2.01572094E-08-7.37611761E-12-9.17935173E+02 6.83010238E-01                   4
H                 000000N   0C   0H   1O   0G       300      5000    1000      1
 2.50000001E+00-2.30842973E-11 1.61561948E-14-4.73515235E-18 4.98197357E-22    2
 2.54736599E+04-4.46682914E-01 2.50000000E+00 7.05332819E-13-1.99591964E-15    3
 2.30081632E-18-9.27732332E-22 2.54736599E+04-4.46682853E-01                   4
OH                000000N   0C   0H   1O   1G       300      5000    1000      1
 2.86472886E+00 1.05650448E-03-2.59082758E-07 3.05218674E-11-1.33195876E-15    2
 3.71885774E+03 5.70164073E+00 4.12530561E+00-3.22544939E-03 6.52764691E-06    3
-5.79853643E-09 2.06237379E-12 3.38153812E+03-6.90432960E-01                   4
H2O               000000N   0C   0H   2O   1G       300      5000    1000      1
 3.03399249E+00 2.17691804E-03-1.64072518E-07-9.70419870E-11 1.68200992E-14    2
-3.00042971E+04 4.96677010E+00 4.19864056E+00-2.03643410E-03 6.52040211E-06    3
-5.48797062E-09 1.77197817E-12-3.02937267E+04-8.49032208E-01                   4
O2                000000N   0C   0H   0O   2G       300      5000    1000      1
 3.28253784E+00 1.48308754E-03-7.57966669E-07 2.09470555E-10-2.16717794E-14    2
-1.08845772E+03 5.45323129E+00 3.78245636E+00-2.99673416E-03 9.84730201E-06    3
-9.68129509E-09 3.24372837E-12-1.06394356E+03 3.65767573E+00                   4
HO2               000000N   0C   0H   1O   2G       300      5000    1000      1
 4.01721090E+00 2.23982013E-03-6.33658150E-07 1.14246370E-10-1.07908535E-14    2
 1.11856713E+02 3.78510215E+00 4.30179801E+00-4.74912051E-03 2.11582891E-05    3
-2.42763894E-08 9.29225124E-12 2.94808040E+02 3.71666245E+00                   4
CH                000000N   0C   1H   1O   0G       300      5000    1000      1
 2.87846473E+00 9.70913681E-04 1.44445655E-07-1.30687849E-10 1.76079383E-14    2
 7.10124364E+04 5.48497999E+00 3.48981665E+00 3.23835541E-04-1.68899065E-06    3
 3.16217327E-09-1.40609067E-12 7.07972934E+04 2.08401108E+00                   4
CO                000000N   0C   1H   0O   1G       300      5000    1000      1
 2.71518561E+00 2.06252743E-03-9.98825771E-07 2.30053008E-10-2.03647716E-14    2
-1.41518724E+04 7.81868772E+00 3.57953347E+00-6.10353680E-04 1.01681433E-06    3
 9.07005884E-10-9.04424499E-13-1.43440860E+04 3.50840928E+00                   4
HCO               000000N   0C   1H   1O   1G       300      5000    1000      1
 2.77217438E+00 4.95695526E-03-2.48445613E-06 5.89161778E-10-5.33508711E-14    2
 4.01191815E+03 9.79834492E+00 4.22118584E+00-3.24392532E-03 1.37799446E-05    3
-1.33144093E-08 4.33768865E-12 3.83956496E+03 3.39437243E+00                   4
CH2O              000000N   0C   1H   2O   1G       300      5000    1000      1
 1.76069008E+00 9.20000082E-03-4.42258813E-06 1.00641212E-09-8.83855640E-14    2
-1.39958323E+04 1.36563230E+01 4.79372315E+00-9.90833369E-03 3.73220008E-05    3
-3.79285261E-08 1.31772652E-11-1.43089567E+04 6.02812900E-01                   4
CH3               000000N   0C   1H   3O   0G       300      5000    1000      1
 2.97812060E+00 5.79785200E-03-1.97558000E-06 3.07297900E-10-1.79174160E-14    2
 1.65095130E+04 4.72247990E+00 3.65717970E+00 2.12659790E-03 5.45838830E-06    3
-6.61810030E-09 2.46570740E-12 1.64227160E+04 1.67353540E+00                   4
CO2               000000N   0C   1H   0O   2G       300      5000    1000      1
 3.85746029E+00 4.41437026E-03-2.21481404E-06 5.23490188E-10-4.72084164E-14    2
-4.87591660E+04 2.27163806E+00 2.35677352E+00 8.98459677E-03-7.12356269E-06    3
 2.45919022E-09-1.43699548E-13-4.83719697E+04 9.90105222E+00                   4
CH4               000000N   0C   1H   4O   0G       300      5000    1000      1
 1.65326226E+00 1.00263099E-02-3.31661238E-06 5.36483138E-10-3.14696758E-14    2
-1.00095936E+04 9.90506283E+00 5.14911468E+00-1.36622009E-02 4.91453921E-05    3
-4.84246767E-08 1.66603441E-11-1.02465983E+04-4.63848842E+00                   4
C2H3              000000N   0C   2H   3O   0G       300      5000    1000      1
 3.01672400E+00 1.03302292E-02-4.68082349E-06 1.01763288E-09-8.62607041E-14    2
 3.46128739E+04 7.78732378E+00 3.21246645E+00 1.51479162E-03 2.59209412E-05    3
-3.57657847E-08 1.47150873E-11 3.48598468E+04 8.51054025E+00                   4
C2H4              000000N   0C   2H   4O   0G       300      5000    1000      1
 2.03611116E+00 1.46454151E-02-6.71077915E-06 1.47222923E-09-1.25706061E-13    2
 4.93988614E+03 1.03053693E+01 3.95920148E+00-7.57052247E-03 5.70990292E-05    3
-6.91588753E-08 2.69884373E-11 5.08977593E+03 4.09733096E+00                   4
C2H5              000000N   0C   2H   5O   0G       300      5000    1000      1
 1.95465642E+00 1.73972722E-02-7.98206668E-06 1.75217689E-09-1.49641576E-13    2
 1.28575200E+04 1.34624343E+01 4.30646568E+00-4.18658892E-03 4.97142807E-05    3
-5.99126606E-08 2.30509004E-11 1.28416265E+04 4.70720924E+00                   4
C2H               000000N   0C   2H   1O   0G       300      5000    1000      1
 3.16780652E+00 4.75221902E-03-1.83787077E-06 3.04190252E-10-1.77232770E-14    2
 6.71210650E+04 6.63589475E+00 2.88965733E+00 1.34099611E-02-2.84769501E-05    3
 2.94791045E-08-1.09331511E-11 6.68393932E+04 6.22296438E+00                   4
HCCO              000000N   0C   2H   1O   1G       300      5000    1000      1
 5.62820580E+00 4.08534010E-03-1.59345470E-06 2.86260520E-10-1.94078320E-14    2
 1.93272150E+04-3.93025950E+00 2.25172140E+00 1.76550210E-02-2.37291010E-05    3
 1.72757590E-08-5.06648110E-12 2.00594490E+04 1.24904170E+01                   4
C2H2              000000N   0C   2H   2O   0G       300      5000    1000      1
 4.14756964E+00 5.96166664E-03-2.37294852E-06 4.67412171E-10-3.61235213E-14    2
 2.59359992E+04-1.23028121E+00 8.08681094E-01 2.33615629E-02-3.55171815E-05    3
 2.80152437E-08-8.50072974E-12 2.64289807E+04 1.39397051E+01                   4
C3H3              000000N   0C   3H   3O   0G       300      5000    1000      1
 6.14915291E+00 9.34063166E-03-3.75055354E-06 6.90156316E-10-4.60824994E-14    2
 3.83854848E+04-7.45345215E+00 1.40299238E+00 3.01773327E-02-3.98449373E-05    3
 2.93534629E-08-8.70554579E-12 3.93108220E+04 1.51527845E+01                   4
AXC3H5            000000N   0C   3H   5O   0G       300      5000    1000      1
 2.28794927E+00 2.36401575E-02-1.27891450E-05 3.36838540E-09-3.47449449E-13    2
 1.83033514E+04 1.14063418E+01-1.03516444E+00 3.75043366E-02-3.26381242E-05    3
 1.47662613E-08-2.43741154E-12 1.88792254E+04 2.71451071E+01                   4
NXC3H7            000000N   0C   3H   7O   0G       300      5000    1000      1
 7.70404050E+00 1.60415400E-02-5.28159670E-06 7.62544030E-10-3.93534620E-14    2
 8.29795310E+03-1.54875140E+01 1.04754730E+00 2.60077940E-02 2.35622520E-06    3
-1.95923170E-08 9.36801160E-12 1.06326370E+04 2.11418760E+01                   4
C2H6              000000N   0C   2H   6O   0G       300      5000    1000      1
 1.07188150E+00 2.16852677E-02-1.00256067E-05 2.21412001E-09-1.90002890E-13    2
-1.14263932E+04 1.51156107E+01 4.29142492E+00-5.50154270E-03 5.99438288E-05    3
-7.08466285E-08 2.68685771E-11-1.15222055E+04 2.66682316E+00                   4
PXC3H4            000000N   0C   3H   4O   0G       300      5000    1000      1
 2.81460543E+00 1.85524496E-02-9.55026768E-06 2.39951370E-09-2.37485257E-13    2
 2.07010771E+04 8.60604972E+00 1.46175323E+00 2.46026602E-02-1.90219395E-05    3
 8.60363422E-09-1.66729240E-12 2.09209793E+04 1.49262585E+01                   4
AXC3H4            000000N   0C   3H   4O   0G       300      5000    1000      1
 2.56128757E+00 1.95080128E-02-1.04061366E-05 2.70165173E-09-2.75074329E-13    2
 2.13894289E+04 9.20550397E+00 3.68928265E-01 2.89351397E-02-2.44386408E-05    3
 1.12547166E-08-2.03040262E-12 2.17585256E+04 1.95267211E+01                   4
A1XC6H6           000000N   0C   6H   6O   0G       300      5000    1000      1
-2.06240612E-01 4.64122440E-02-2.77653536E-05 7.88910537E-09-8.60365259E-13    2
 8.09883905E+03 2.06566629E+01-5.51558393E+00 6.45453225E-02-4.41402928E-05    3
 7.47712161E-09 3.10282254E-12 9.11031457E+03 4.65332293E+01                   4
A1XXC6H5          000000N   0C   6H   5O   0G       300      5000    1000      1
 1.38016336E+00 4.04032009E-02-2.42250885E-05 6.88723321E-09-7.50960802E-13    2
 3.86973520E+04 1.55220921E+01-4.87654845E+00 6.26805782E-02-4.87402286E-05    3
 1.41122287E-08 5.18518312E-13 3.99269438E+04 4.59964173E+01                   4
C5H5              000000N   0C   5H   5O   0G       300      5000    1000      1
 4.21464919E+00 2.71834728E-02-1.33173209E-05 3.08980119E-09-2.77879873E-13    2
 2.88952416E+04-3.05999781E-02-7.37844042E+00 9.72391818E-02-1.69579138E-04    3
 1.51818667E-07-5.12075479E-11 3.05514662E+04 5.12829539E+01                   4
C3H6              000000N   0C   3H   6O   0G       300      5000    1000      1
 4.71697982E-01 2.89513070E-02-1.56601819E-05 4.11443199E-09-4.23075141E-13    2
 1.12603387E+03 2.15237289E+01-2.29261670E-03 3.10261065E-02-1.67151548E-05    3
 1.89594170E-09 1.24957915E-12 1.13437406E+03 2.35719601E+01                   4
C4H8              000000N   0C   4H   8O   0G       300      5000    1000      1
 3.04470367E+00 3.27451765E-02-1.45363237E-05 2.39744017E-09 0.00000000E+00    2
-2.52177534E+03 1.00151514E+01-8.31372089E-01 4.52580978E-02-2.93658559E-05    3
 1.00220436E-08-1.43191680E-12-1.57875035E+03 2.95084236E+01                   4
C5H6              000000N   0C   5H   6O   0G       300      5000    1000      1
 2.30537462E-01 4.09571826E-02-2.41588958E-05 6.79763480E-09-7.36374421E-13    2
 1.43779465E+04 2.02551234E+01-5.13691194E+00 6.06953453E-02-4.60552837E-05    3
 1.28457201E-08 7.41214852E-13 1.53675713E+04 4.61567559E+01                   4
A2XC10H8          000000N   0C  10H   8O   0G       300      5000    1000      1
 1.76826275E+00 6.89143506E-02-4.14322176E-05 1.17914309E-08-1.28597061E-12    2
 1.26883657E+04 1.06256608E+01-8.72434585E+00 1.05376008E-01-8.01710690E-05    3
 2.18545974E-08 1.42066606E-12 1.48059774E+04 6.19827540E+01                   4
C5H10             000000N   0C   5H  10O   0G       300      5000    1000      1
 3.98580522E+00 4.12429986E-02-1.84390497E-05 3.06155241E-09 0.00000000E+00    2
-5.70112071E+03 6.85332264E+00-1.06223481E+00 5.74218294E-02-3.74486890E-05    3
 1.27364989E-08-1.79609789E-12-4.46546666E+03 3.22739790E+01                   4
C5H11             000000N   0C   5H  11O   0G       300      5000    1000      1
 4.88920629E+00 4.22834537E-02-1.85843100E-05 3.04124763E-09 0.00000000E+00    2
 3.43475468E+03 3.43704878E+00-9.05255912E-01 6.10632852E-02-4.09491825E-05    3
 1.46093470E-08-2.18859615E-12 4.83995303E+03 3.25574963E+01                   4
A1C2H2            000000N   0C   8H   7O   0G       300      5000    1000      1
 5.85935080E+00 4.72571459E-02-2.69864733E-05 7.35311775E-09-7.74900830E-13    2
 4.33198974E+04-5.22359403E+00-6.31199276E+00 9.51097942E-02-9.56352102E-05    3
 4.97780207E-08-1.02323717E-11 4.57330975E+04 5.35475222E+01                   4
A1CH2             000000N   0C   7H   7O   0G       300      5000    1000      1
 3.30049696E+00 4.80055340E-02-2.78443022E-05 7.72371356E-09-8.27154136E-13    2
 2.17498572E+04 5.42371919E+00-6.07053038E+00 8.35201507E-02-7.41700083E-05    3
 3.13153847E-08-4.23670868E-12 2.35894712E+04 5.07932172E+01                   4
A1CHO             000000N   0C   7H   6O   1G       300      5000    1000      1
 1.87355756E+00 5.26231551E-02-3.17644962E-05 9.06403069E-09-9.90306123E-13    2
-7.23603865E+03 1.49787009E+01-3.47171048E+00 6.92891889E-02-4.32603509E-05    3
 3.43871096E-09 4.81010261E-12-6.14558774E+03 4.14094024E+01                   4
A1CH3             000000N   0C   7H   8O   0G       300      5000    1000      1
-1.01117220E+00 5.85301912E-02-3.47595069E-05 9.82180993E-09-1.06680870E-12    2
 3.99363395E+03 2.83610783E+01-4.54072038E+00 6.85427145E-02-3.57113024E-05    3
-4.19397642E-09 7.41779795E-12 4.64121087E+03 4.57564849E+01                   4
C7H15             000000N   0C   7H  15O   0G       300      5000    1000      1
 3.74721159E+00 6.49345162E-02-3.01341025E-05 5.17418142E-09 0.00000000E+00    2
-3.37018357E+03 1.42780413E+01-3.79155767E-02 7.56726570E-02-4.07473634E-05    3
 9.32678943E-09-4.92360745E-13-2.35605303E+03 3.37321506E+01                   4
NXC7H16           000000N   0C   7H  16O   0G       300      5000    1000      1
 5.14079241E+00 6.53078671E-02-2.94827624E-05 4.93726726E-09 0.00000000E+00    2
-2.72533890E+04 2.98195967E+00-1.26836187E+00 8.54355820E-02-5.25346786E-05    3
 1.62945721E-08-2.02394925E-12-2.56586565E+04 3.53732912E+01                   4
A1C2HY            000000N   0C   8H   5O   0G       300      5000    1000      1
 7.23812069E+00 3.83812109E-02-2.18850731E-05 5.97161247E-09-6.30351467E-13    2
 6.49528135E+04-1.17512654E+01-4.42757639E+00 8.36668645E-02-8.70106362E-05    3
 4.70285661E-08-1.01816985E-11 6.73302359E+04 4.48118287E+01                   4
A2XXC10H7         000000N   0C  10H   7O   0G       300      5000    1000      1
 3.22892303E+00 6.31264486E-02-3.80582381E-05 1.08454069E-08-1.18342512E-12    2
 4.78400840E+04 5.82016697E+00-8.02718034E+00 1.02924518E-01-8.34272010E-05    3
 2.72135383E-08-7.24559554E-13 5.01363344E+04 6.08902264E+01                   4
A1C2H             000000N   0C   8H   6O   0G       300      5000    1000      1
 5.81520488E+00 4.40872933E-02-2.52053858E-05 6.90275228E-09-7.31378908E-13    2
 3.30271906E+04-6.49320690E+00-5.21036925E+00 8.65551944E-02-8.45007483E-05    3
 4.21920706E-08-8.16766167E-12 3.52488620E+04 4.69445057E+01                   4
